networks/opendss/CKT_2251_01518.dss
! OpenDSS script generated from multiconductor network
Clear

New Circuit.mc_network basekv=12.0 pu=1.000000 angle=0.00 frequency=60.0 phases=3 Mvasc3=143993 Mvasc1=47997.6
~ bus1=-8888882153680.1.2.3

! Line codes
New LineCode.1000_JCN_3PH_12KV_3 nphases=3 units=km Rmatrix=[ 0.008402 | 0 0.008402 | 0 0 0.008402 ] Xmatrix=[ 0.012719 | 0 0.012719 | 0 0 0.012719 ] Cmatrix=[ 0 | 0 0 | 0 0 0 ]
New LineCode.1/0_CLP_2PH_12KV_2 nphases=2 units=km Rmatrix=[ 0.043353 | 0 0.043353 ] Xmatrix=[ 0.013251 | 0 0.013251 ] Cmatrix=[ 0 | 0 0 ]
New LineCode.2_CLP_2PH_12KV_2 nphases=2 units=km Rmatrix=[ 0.001692 | 0 0.001692 ] Xmatrix=[ 0.000357 | 0 0.000357 ] Cmatrix=[ 0 | 0 0 ]
New LineCode.1/0_JCN_2PH_12KV_2 nphases=2 units=km Rmatrix=[ 0.004924 | 0 0.004924 ] Xmatrix=[ 0.001505 | 0 0.001505 ] Cmatrix=[ 0 | 0 0 ]
New LineCode.2_CIC_2PH_12KV_2 nphases=2 units=km Rmatrix=[ 0.112512 | 0 0.112512 ] Xmatrix=[ 0.023715 | 0 0.023715 ] Cmatrix=[ 0 | 0 0 ]
New LineCode.2_CLP_3PH_12KV_3 nphases=3 units=km Rmatrix=[ 0.133858 | 0 0.133858 | 0 0 0.133858 ] Xmatrix=[ 0.028215 | 0 0.028215 | 0 0 0.028215 ] Cmatrix=[ 0 | 0 0 | 0 0 0 ]
New LineCode.2_AL_2PH_12KV_2 nphases=2 units=km Rmatrix=[ 0.08997 | 0 0.08997 ] Xmatrix=[ 0.018964 | 0 0.018964 ] Cmatrix=[ 0 | 0 0 ]
New LineCode.2_CLP_1PH_12KV_1 nphases=1 units=km Rmatrix=[ 0.098951 ] Xmatrix=[ 0.020857 ] Cmatrix=[ 0 ]
New LineCode.1/0_JCN_3PH_12KV_3 nphases=3 units=km Rmatrix=[ 0.002341 | 0 0.002341 | 0 0 0.002341 ] Xmatrix=[ 0.000715 | 0 0.000715 | 0 0 0.000715 ] Cmatrix=[ 0 | 0 0 | 0 0 0 ]
New LineCode.1/0_ACSR_3PH_12KV_3 nphases=3 units=km Rmatrix=[ 0.043259 | 0 0.043259 | 0 0 0.043259 ] Xmatrix=[ 0.034443 | 0 0.034443 | 0 0 0.034443 ] Cmatrix=[ 0 | 0 0 | 0 0 0 ]
New LineCode.350_AL_3PH_12KV_3 nphases=3 units=km Rmatrix=[ 0.009759 | 0 0.009759 | 0 0 0.009759 ] Xmatrix=[ 0.007415 | 0 0.007415 | 0 0 0.007415 ] Cmatrix=[ 0 | 0 0 | 0 0 0 ]
New LineCode.1/0_CLP_3PH_12KV_3 nphases=3 units=km Rmatrix=[ 0.032656 | 0 0.032656 | 0 0 0.032656 ] Xmatrix=[ 0.009981 | 0 0.009981 | 0 0 0.009981 ] Cmatrix=[ 0 | 0 0 | 0 0 0 ]
New LineCode.336_ACSR_3PH_12KV_3 nphases=3 units=km Rmatrix=[ 0.015906 | 0 0.015906 | 0 0 0.015906 ] Xmatrix=[ 0.035621 | 0 0.035621 | 0 0 0.035621 ] Cmatrix=[ 0 | 0 0 | 0 0 0 ]
New LineCode.2_CU_3PH_12KV_3 nphases=3 units=km Rmatrix=[ 0.003978 | 0 0.003978 | 0 0 0.003978 ] Xmatrix=[ 0.003235 | 0 0.003235 | 0 0 0.003235 ] Cmatrix=[ 0 | 0 0 | 0 0 0 ]
New LineCode.336_ACSR_2PH_336_ACSR_N_12KV_3_N nphases=3 units=km Rmatrix=[ 0.000713 | 0 0.000713 | 0 0 0.000713 ] Xmatrix=[ 0.001421 | 0 0.001421 | 0 0 0.001421 ] Cmatrix=[ 0 | 0 0 | 0 0 0 ]
New LineCode.2_CU_2PH_12KV_2 nphases=2 units=km Rmatrix=[ 0.002814 | 0 0.002814 ] Xmatrix=[ 0.002288 | 0 0.002288 ] Cmatrix=[ 0 | 0 0 ]
New LineCode.4_ACSR_3PH_12KV_3 nphases=3 units=km Rmatrix=[ 0.073458 | 0 0.073458 | 0 0 0.073458 ] Xmatrix=[ 0.026955 | 0 0.026955 | 0 0 0.026955 ] Cmatrix=[ 0 | 0 0 | 0 0 0 ]
New LineCode.6_CU_3PH_12KV_3 nphases=3 units=km Rmatrix=[ 0.055255 | 0 0.055255 | 0 0 0.055255 ] Xmatrix=[ 0.019585 | 0 0.019585 | 0 0 0.019585 ] Cmatrix=[ 0 | 0 0 | 0 0 0 ]
New LineCode.4_ACSR_2PH_12KV_2 nphases=2 units=km Rmatrix=[ 0.069513 | 0 0.069513 ] Xmatrix=[ 0.025507 | 0 0.025507 ] Cmatrix=[ 0 | 0 0 ]
New LineCode.1/0_AL_2PH_12KV_2 nphases=2 units=km Rmatrix=[ 0.007618 | 0 0.007618 ] Xmatrix=[ 0.002329 | 0 0.002329 ] Cmatrix=[ 0 | 0 0 ]
New LineCode.1/0_AL_3PH_12KV_3 nphases=3 units=km Rmatrix=[ 0.021051 | 0 0.021051 | 0 0 0.021051 ] Xmatrix=[ 0.006434 | 0 0.006434 | 0 0 0.006434 ] Cmatrix=[ 0 | 0 0 | 0 0 0 ]
New LineCode.6_CU_3PH_12KV_4 nphases=4 units=km Rmatrix=[ 0.055255 | 0 0.055255 | 0 0 0.055255 | 0 0 0 0.055255 ] Xmatrix=[ 0.019585 | 0 0.019585 | 0 0 0.019585 | 0 0 0 0.019585 ] Cmatrix=[ 0 | 0 0 | 0 0 0 | 0 0 0 0 ]
New LineCode.2_ACSR_2PH_12KV_2 nphases=2 units=km Rmatrix=[ 0.002054 | 0 0.002054 ] Xmatrix=[ 0.001104 | 0 0.001104 ] Cmatrix=[ 0 | 0 0 ]
New LineCode.1/0_ACSR_2PH_12KV_2 nphases=2 units=km Rmatrix=[ 0.208729 | 0 0.208729 ] Xmatrix=[ 0.166189 | 0 0.166189 ] Cmatrix=[ 0 | 0 0 ]
New LineCode.6_CU_3PH_6_CU_N_12KV_4 nphases=4 units=km Rmatrix=[ 0.007118 | 0 0.007118 | 0 0 0.007118 | 0 0 0 0.007118 ] Xmatrix=[ 0.002299 | 0 0.002299 | 0 0 0.002299 | 0 0 0 0.002299 ] Cmatrix=[ 0 | 0 0 | 0 0 0 | 0 0 0 0 ]
New LineCode.6_CU_2PH_12KV_2 nphases=2 units=km Rmatrix=[ 0.081263 | 0 0.081263 ] Xmatrix=[ 0.028804 | 0 0.028804 ] Cmatrix=[ 0 | 0 0 ]
New LineCode.1/0_ACSR_3PH_12KV_4 nphases=4 units=km Rmatrix=[ 0.043259 | 0 0.043259 | 0 0 0.043259 | 0 0 0 0.043259 ] Xmatrix=[ 0.034443 | 0 0.034443 | 0 0 0.034443 | 0 0 0 0.034443 ] Cmatrix=[ 0 | 0 0 | 0 0 0 | 0 0 0 0 ]
New LineCode.1/0_ATW_3PH_12KV_3 nphases=3 units=km Rmatrix=[ 1e-05 | 0 1e-05 | 0 0 1e-05 ] Xmatrix=[ 1e-05 | 0 1e-05 | 0 0 1e-05 ] Cmatrix=[ 0 | 0 0 | 0 0 0 ]
New LineCode.2_JCN_2PH_12KV_2 nphases=2 units=km Rmatrix=[ 0.004891 | 0 0.004891 ] Xmatrix=[ 0.001031 | 0 0.001031 ] Cmatrix=[ 0 | 0 0 ]
New LineCode.__3PH_12KV_3 nphases=3 units=km Rmatrix=[ 1e-05 | 0 1e-05 | 0 0 1e-05 ] Xmatrix=[ 1e-05 | 0 1e-05 | 0 0 1e-05 ] Cmatrix=[ 0 | 0 0 | 0 0 0 ]
New LineCode.350_CLP_3PH_12KV_3 nphases=3 units=km Rmatrix=[ 0.06709 | 0 0.06709 | 0 0 0.06709 ] Xmatrix=[ 0.050975 | 0 0.050975 | 0 0 0.050975 ] Cmatrix=[ 0 | 0 0 | 0 0 0 ]
New LineCode.2_AL_3PH_12KV_3 nphases=3 units=km Rmatrix=[ 0.115104 | 0 0.115104 | 0 0 0.115104 ] Xmatrix=[ 0.024262 | 0 0.024262 | 0 0 0.024262 ] Cmatrix=[ 0 | 0 0 | 0 0 0 ]

! Lines
New Line.08240$4695551EP3 phases=3 Bus1=-8888882153680.1.2.3 Bus2=140660967.1.2.3 LineCode=1000_JCN_3PH_12KV_3 Length=0.050152 units=km
New Line.ND32188146$P5403140-1 phases=2 Bus1=32188146.2.3 Bus2=32133730.2.3 LineCode=1/0_CLP_2PH_12KV_2 Length=0.059685 units=km
New Line.FD10726$ND84527748 phases=2 Bus1=84527667.2.3 Bus2=84527748.2.3 LineCode=2_CLP_2PH_12KV_2 Length=0.065257 units=km
New Line.P5590080-2$108343509 phases=2 Bus1=108343512.2.3 Bus2=108343446.2.3 LineCode=2_CLP_2PH_12KV_2 Length=0.001694 units=km
New Line.191583680$P5590319-2 phases=2 Bus1=32110306.1.2 Bus2=191583683.1.2 LineCode=2_CLP_2PH_12KV_2 Length=0.000962 units=km
New Line.245874567$P5779227-1 phases=2 Bus1=245874570.2.3 Bus2=245874517.2.3 LineCode=1/0_JCN_2PH_12KV_2 Length=0.001819 units=km
New Line.167209744$P5429614-2 phases=2 Bus1=167209747.1.2 Bus2=32109103.1.2 LineCode=2_CIC_2PH_12KV_2 Length=0.001004 units=km
New Line.216279374$POS9927-1 phases=3 Bus1=216279377.1.2.3 Bus2=32158372.1.2.3 LineCode=2_CLP_3PH_12KV_3 Length=0.000505 units=km
New Line.242045578$ND73672797 phases=2 Bus1=242045580.2.3 Bus2=73672797.2.3 LineCode=2_CLP_2PH_12KV_2 Length=0.052765 units=km
New Line.B5169553-2$B5169552-1 phases=2 Bus1=32109238.1.3 Bus2=32109319.1.3 LineCode=2_CLP_2PH_12KV_2 Length=0.123041 units=km
New Line.ND73672797$73673134 phases=2 Bus1=73672797.2.3 Bus2=73673136.2.3 LineCode=2_CLP_2PH_12KV_2 Length=0.072026 units=km
New Line.ND73672797$73673159 phases=2 Bus1=73672797.2.3 Bus2=73673161.2.3 LineCode=2_CLP_2PH_12KV_2 Length=0.081504 units=km
New Line.166221713$P5463936-B phases=2 Bus1=164981669.2.3 Bus2=166221716.2.3 LineCode=2_AL_2PH_12KV_2 Length=0.002708 units=km
New Line.216279362$POS9927-1 phases=3 Bus1=32158373.1.2.3 Bus2=216279365.1.2.3 LineCode=2_CLP_3PH_12KV_3 Length=0.000632 units=km
New Line.B5169555-2$1650086E phases=1 Bus1=32109480.2 Bus2=32109649.2 LineCode=2_CLP_1PH_12KV_1 Length=0.102392 units=km
New Line.167209756$P5429614-1 phases=2 Bus1=32109094.1.2 Bus2=167209759.1.2 LineCode=2_CIC_2PH_12KV_2 Length=0.001392 units=km
New Line.4890832E$187842537 phases=3 Bus1=187842428.1.2.3 Bus2=187842539.1.2.3 LineCode=1/0_JCN_3PH_12KV_3 Length=0.034663 units=km
New Line.73673134$P5533926-1 phases=2 Bus1=73673137.2.3 Bus2=73672725.2.3 LineCode=2_CLP_2PH_12KV_2 Length=0.002607 units=km
New Line.73673159$P5533927-2 phases=2 Bus1=73673162.2.3 Bus2=73672820.2.3 LineCode=2_CLP_2PH_12KV_2 Length=0.002916 units=km
New Line.166221713$P5463935-1 phases=2 Bus1=166221715.2.3 Bus2=164347671.2.3 LineCode=2_AL_2PH_12KV_2 Length=0.054645 units=km
New Line.1771676EP$P5014314-A phases=2 Bus1=32157857.1.3 Bus2=32134568.1.3 LineCode=2_AL_2PH_12KV_2 Length=0.070419 units=km
New Line.ND84527748$84529042 phases=2 Bus1=84527748.2.3 Bus2=84529044.2.3 LineCode=2_CLP_2PH_12KV_2 Length=0.109232 units=km
New Line.ND84527748$84529499 phases=2 Bus1=84527748.2.3 Bus2=84529501.2.3 LineCode=2_CLP_2PH_12KV_2 Length=0.146215 units=km
New Line.P5014397-A$191988274 phases=2 Bus1=32132722.2.3 Bus2=191988276.2.3 LineCode=2_AL_2PH_12KV_2 Length=0.169324 units=km
New Line.4122696EP1$201448912 phases=3 Bus1=106338060.1.2.3 Bus2=201448914.1.2.3 LineCode=2_CLP_3PH_12KV_3 Length=0.010526 units=km
New Line.201398157$P5403137-2 phases=2 Bus1=201398160.2.3 Bus2=32133811.2.3 LineCode=1/0_CLP_2PH_12KV_2 Length=0.000742 units=km
New Line.FD10727$ND166577198 phases=3 Bus1=166577198.1.2.3 Bus2=84527682.1.2.3 LineCode=1/0_ACSR_3PH_12KV_3 Length=0.002675 units=km
New Line.191583680$191988311 phases=2 Bus1=191583682.1.2 Bus2=191988313.1.2 LineCode=2_CLP_2PH_12KV_2 Length=0.005321 units=km
New Line.201398081$P5425281-1 phases=2 Bus1=31840523.1.2 Bus2=201398084.1.2 LineCode=1/0_CLP_2PH_12KV_2 Length=0.001417 units=km
New Line.P5403140-2$P5429617-1 phases=2 Bus1=32133739.2.3 Bus2=32133658.2.3 LineCode=1/0_CLP_2PH_12KV_2 Length=0.091087 units=km
New Line.84529499$P5533752-2 phases=2 Bus1=84529502.2.3 Bus2=84528717.2.3 LineCode=2_CLP_2PH_12KV_2 Length=0.002613 units=km
New Line.84529042$P5533753-2 phases=2 Bus1=84529045.2.3 Bus2=84528870.2.3 LineCode=2_CLP_2PH_12KV_2 Length=0.00178 units=km
New Line.B5338962-1$B5169553-1 phases=2 Bus1=32109310.1.3 Bus2=32109382.1.3 LineCode=2_CLP_2PH_12KV_2 Length=0.076179 units=km
New Line.4356959E$BS8206-1 phases=2 Bus1=32109943.1.3 Bus2=32134161.1.3 LineCode=2_CLP_2PH_12KV_2 Length=0.017725 units=km
New Line.1337951E$ND32188679 phases=3 Bus1=32109882.1.2.3 Bus2=32188679.1.2.3 LineCode=350_AL_3PH_12KV_3 Length=0.043953 units=km
New Line.ND89731125$216279362 phases=3 Bus1=216279364.1.2.3 Bus2=89731125.1.2.3 LineCode=2_CLP_3PH_12KV_3 Length=0.004868 units=km
New Line.1707426E$180129637 phases=3 Bus1=31856794.1.2.3 Bus2=180129639.1.2.3 LineCode=1/0_JCN_3PH_12KV_3 Length=0.03884 units=km
New Line.187842537$P5700193-1 phases=3 Bus1=187842540.1.2.3 Bus2=187842485.1.2.3 LineCode=1/0_JCN_3PH_12KV_3 Length=0.003308 units=km
New Line.FD10857$191697657 phases=2 Bus1=191697425.2.3 Bus2=191697659.2.3 LineCode=1/0_JCN_2PH_12KV_2 Length=0.049004 units=km
New Line.201448912$P5570649-1 phases=3 Bus1=201448915.1.2.3 Bus2=106338103.1.2.3 LineCode=2_CLP_3PH_12KV_3 Length=0.000574 units=km
New Line.P5014314-B$216279306 phases=2 Bus1=32134559.1.3 Bus2=216279308.1.3 LineCode=2_AL_2PH_12KV_2 Length=0.087456 units=km
New Line.191988274$P5014398-B phases=2 Bus1=191988277.2.3 Bus2=32132808.2.3 LineCode=2_AL_2PH_12KV_2 Length=0.001536 units=km
New Line.FD10727$ND84527826 phases=2 Bus1=84527702.1.2 Bus2=84527826.1.2 LineCode=2_CLP_2PH_12KV_2 Length=0.00581 units=km
New Line.191988311$P5590320-1 phases=2 Bus1=191988314.1.2 Bus2=100259400.1.2 LineCode=2_CLP_2PH_12KV_2 Length=0.000547 units=km
New Line.201398169$P5403137-1 phases=2 Bus1=32133802.2.3 Bus2=201398172.2.3 LineCode=1/0_CLP_2PH_12KV_2 Length=0.000647 units=km
New Line.P5425282-1$201398081 phases=2 Bus1=201398083.1.2 Bus2=31840595.1.2 LineCode=1/0_CLP_2PH_12KV_2 Length=0.10295 units=km
New Line.ND84527826$84529374 phases=2 Bus1=84527826.1.2 Bus2=84529376.1.2 LineCode=2_CLP_2PH_12KV_2 Length=0.136767 units=km
New Line.ND84527826$84529474 phases=2 Bus1=84527826.1.2 Bus2=84529476.1.2 LineCode=2_CLP_2PH_12KV_2 Length=0.101578 units=km
New Line.P5429617-2$201448822 phases=2 Bus1=32133667.2.3 Bus2=201448824.2.3 LineCode=1/0_CLP_2PH_12KV_2 Length=0.072249 units=km
New Line.216279306$P5014315-1 phases=2 Bus1=216279309.1.3 Bus2=216279244.1.3 LineCode=2_AL_2PH_12KV_2 Length=0.001519 units=km
New Line.ND32188679$207267237 phases=3 Bus1=32188679.1.2.3 Bus2=207267239.1.2.3 LineCode=2_CLP_3PH_12KV_3 Length=0.089364 units=km
New Line.P5429613-1$167209756 phases=2 Bus1=167209758.1.2 Bus2=32109022.1.2 LineCode=2_CIC_2PH_12KV_2 Length=0.164742 units=km
New Line.B5169556-2$B5169555-1 phases=1 Bus1=32109640.2 Bus2=32109793.2 LineCode=2_CLP_1PH_12KV_1 Length=0.115593 units=km
New Line.ND32188679$P5338978-1 phases=3 Bus1=32188679.1.2.3 Bus2=32109898.1.2.3 LineCode=350_AL_3PH_12KV_3 Length=0.054726 units=km
New Line.ND99074404$ND89731125 phases=3 Bus1=89731125.1.2.3 Bus2=99074404.1.2.3 LineCode=2_CLP_3PH_12KV_3 Length=0.021692 units=km
New Line.ND89731125$ND99074447 phases=2 Bus1=89731125.1.3 Bus2=99074447.1.3 LineCode=2_CLP_2PH_12KV_2 Length=0.103172 units=km
New Line.4541968E$ND31896529 phases=3 Bus1=31840072.1.2.3 Bus2=31896529.1.2.3 LineCode=1/0_CLP_3PH_12KV_3 Length=0.009888 units=km
New Line.B5338980-2$BS8206-1 phases=2 Bus1=32134162.1.3 Bus2=32110112.1.3 LineCode=2_CLP_2PH_12KV_2 Length=0.042736 units=km
New Line.P5489926-1$ND99074404 phases=2 Bus1=99074404.1.3 Bus2=32158180.1.3 LineCode=2_CLP_2PH_12KV_2 Length=0.096661 units=km
New Line.ND99074404$P5489925-1 phases=3 Bus1=99074404.1.2.3 Bus2=32158228.1.2.3 LineCode=2_CLP_3PH_12KV_3 Length=0.070926 units=km
New Line.P5489929-1$ND99074447 phases=2 Bus1=99074447.1.3 Bus2=32158276.1.3 LineCode=2_CLP_2PH_12KV_2 Length=0.136788 units=km
New Line.P5489930-1$ND99074447 phases=2 Bus1=99074447.1.3 Bus2=32158324.1.3 LineCode=2_CLP_2PH_12KV_2 Length=0.112526 units=km
New Line.ND99074447$ND32189050 phases=2 Bus1=99074447.1.3 Bus2=32189050.1.3 LineCode=2_CLP_2PH_12KV_2 Length=0.015197 units=km
New Line.P5533927-1$73673184 phases=2 Bus1=73672811.2.3 Bus2=73673187.2.3 LineCode=2_CLP_2PH_12KV_2 Length=0.002398 units=km
New Line.P5533753-1$84529067 phases=2 Bus1=84528861.2.3 Bus2=84529070.2.3 LineCode=2_CLP_2PH_12KV_2 Length=0.002416 units=km
New Line.P5533752-1$84529524 phases=2 Bus1=84528708.2.3 Bus2=84529527.2.3 LineCode=2_CLP_2PH_12KV_2 Length=0.001859 units=km
New Line.191988262$P5014398-A phases=2 Bus1=32132799.2.3 Bus2=191988265.2.3 LineCode=2_AL_2PH_12KV_2 Length=0.001603 units=km
New Line.P5403139-2$201398169 phases=2 Bus1=201398171.2.3 Bus2=32133883.2.3 LineCode=1/0_CLP_2PH_12KV_2 Length=0.09459 units=km
New Line.84529474$P5533748-1 phases=2 Bus1=84529477.1.2 Bus2=84527860.1.2 LineCode=2_CLP_2PH_12KV_2 Length=0.001403 units=km
New Line.84529374$P5533749-1 phases=2 Bus1=84529377.1.2 Bus2=84527958.1.2 LineCode=2_CLP_2PH_12KV_2 Length=0.001548 units=km
New Line.P5425283-1$P5425282-2 phases=2 Bus1=31840604.1.2 Bus2=31840667.1.2 LineCode=1/0_CLP_2PH_12KV_2 Length=0.090868 units=km
New Line.201448822$P5429618-1 phases=2 Bus1=201448825.2.3 Bus2=32133586.2.3 LineCode=1/0_CLP_2PH_12KV_2 Length=0.001779 units=km
New Line.84529067$84529092 phases=2 Bus1=84529069.2.3 Bus2=84529094.2.3 LineCode=2_CLP_2PH_12KV_2 Length=0.111194 units=km
New Line.84529524$84529549 phases=2 Bus1=84529526.2.3 Bus2=84529551.2.3 LineCode=2_CLP_2PH_12KV_2 Length=0.119467 units=km
New Line.191988262$207267303 phases=2 Bus1=191988264.2.3 Bus2=207267305.2.3 LineCode=2_AL_2PH_12KV_2 Length=0.105431 units=km
New Line.ND31896529$P5178188-A phases=3 Bus1=31896529.1.2.3 Bus2=152360754.1.2.3 LineCode=1/0_CLP_3PH_12KV_3 Length=0.115269 units=km
New Line.ND180129411$180129637 phases=3 Bus1=180129640.1.2.3 Bus2=180129411.1.2.3 LineCode=1/0_JCN_3PH_12KV_3 Length=0.010945 units=km
New Line.191697645$191697657 phases=2 Bus1=191697660.2.3 Bus2=191697648.2.3 LineCode=1/0_JCN_2PH_12KV_2 Length=0.007404 units=km
New Line.P5447407-1$ND31896529 phases=2 Bus1=31896529.1.3 Bus2=31855261.1.3 LineCode=1/0_CLP_2PH_12KV_2 Length=0.08761 units=km
New Line.B5338962-2$B5338961-1 phases=2 Bus1=32109391.1.3 Bus2=32109166.1.3 LineCode=2_CLP_2PH_12KV_2 Length=0.055403 units=km
New Line.207267237$P5443551-1 phases=3 Bus1=207267240.1.2.3 Bus2=32158522.1.2.3 LineCode=2_CLP_3PH_12KV_3 Length=0.001602 units=km
New Line.ND32189050$ND32187824 phases=2 Bus1=32189050.1.3 Bus2=32187824.1.3 LineCode=2_CLP_2PH_12KV_2 Length=0.013041 units=km
New Line.ND180129411$180129583 phases=3 Bus1=180129411.1.2.3 Bus2=180129586.1.2.3 LineCode=1/0_JCN_3PH_12KV_3 Length=0.007857 units=km
New Line.ND180129411$180129610 phases=3 Bus1=180129411.1.2.3 Bus2=180129613.1.2.3 LineCode=1/0_JCN_3PH_12KV_3 Length=0.008749 units=km
New Line.ND32187824$305943490 phases=2 Bus1=32187824.1.3 Bus2=305943492.1.3 LineCode=2_CLP_2PH_12KV_2 Length=0.123046 units=km
New Line.ND32187824$305943520 phases=2 Bus1=32187824.1.3 Bus2=305943522.1.3 LineCode=2_CLP_2PH_12KV_2 Length=0.097525 units=km
New Line.1707429E$BS6893-1 phases=2 Bus1=31854915.2.3 Bus2=31840138.2.3 LineCode=2_CLP_2PH_12KV_2 Length=0.046411 units=km
New Line.P5429613-2$ND32188716 phases=2 Bus1=32109031.1.2 Bus2=32188716.1.2 LineCode=2_CIC_2PH_12KV_2 Length=0.126168 units=km
New Line.B5169556-1$ND32189014 phases=1 Bus1=32109784.2 Bus2=32189014.2 LineCode=2_CLP_1PH_12KV_1 Length=0.005069 units=km
New Line.ND73672969$73673184 phases=2 Bus1=73673186.2.3 Bus2=73672969.2.3 LineCode=2_CLP_2PH_12KV_2 Length=0.036731 units=km
New Line.191697667$191697645 phases=2 Bus1=191697647.2.3 Bus2=191697669.2.3 LineCode=1/0_JCN_2PH_12KV_2 Length=0.036617 units=km
New Line.B5169557-2$ND32189014 phases=1 Bus1=32189014.2 Bus2=32109505.2 LineCode=2_CLP_1PH_12KV_1 Length=0.160246 units=km
New Line.B5169559-2$ND32189014 phases=1 Bus1=32189014.2 Bus2=32109721.2 LineCode=2_CLP_1PH_12KV_1 Length=0.19419 units=km
New Line.B5338980-1$B5338981-2 phases=2 Bus1=32110103.1.3 Bus2=32110040.1.3 LineCode=2_CLP_2PH_12KV_2 Length=0.100347 units=km
New Line.P5449505-1$ND32188716 phases=2 Bus1=32188716.1.2 Bus2=32152503.1.2 LineCode=2_CIC_2PH_12KV_2 Length=0.046512 units=km
New Line.P5451766-2$ND32188716 phases=2 Bus1=32188716.1.2 Bus2=32152776.1.2 LineCode=2_CLP_2PH_12KV_2 Length=0.163191 units=km
New Line.ND32188716$ND32161725 phases=2 Bus1=32188716.1.2 Bus2=32161725.1.2 LineCode=2_CIC_2PH_12KV_2 Length=0.108705 units=km
New Line.ND73672969$ND73673061 phases=2 Bus1=73672969.2.3 Bus2=73673061.2.3 LineCode=2_CLP_2PH_12KV_2 Length=0.128339 units=km
New Line.ND73672969$73673221 phases=2 Bus1=73672969.2.3 Bus2=73673223.2.3 LineCode=2_CLP_2PH_12KV_2 Length=0.104173 units=km
New Line.P5178188-B$P5178189-A phases=3 Bus1=152360772.1.2.3 Bus2=152360853.1.2.3 LineCode=1/0_CLP_3PH_12KV_3 Length=0.039565 units=km
New Line.ND201448885$ND32188205 phases=3 Bus1=201448885.1.2.3 Bus2=32188205.1.2.3 LineCode=336_ACSR_3PH_12KV_3 Length=0.074417 units=km
New Line.ND166577198$ND32188205 phases=3 Bus1=32188205.1.2.3 Bus2=166577198.1.2.3 LineCode=1/0_ACSR_3PH_12KV_3 Length=0.097047 units=km
New Line.4356959ET1$ND32188135 phases=3 Bus1=32188135.1.2.3 Bus2=32160598.1.2.3 LineCode=2_CU_3PH_12KV_3 Length=0.081796 units=km
New Line.ND32188135$ND32188120 phases=3 Bus1=32188135.1.2.3 Bus2=32188120.1.2.3 LineCode=336_ACSR_3PH_12KV_3 Length=0.081796 units=km
New Line.ND187842452$ND187842391 phases=3 Bus1=187842391.1.2.3 Bus2=187842452.1.2.3 LineCode=336_ACSR_3PH_12KV_3 Length=0.015079 units=km
New Line.ND32188120$PS6023 phases=3 Bus1=32188120.1.2.3 Bus2=236468400.1.2.3 LineCode=336_ACSR_3PH_12KV_3 Length=0.006935 units=km
New Line.1650086EIB1-1$1650086E phases=3 Bus1=32135004.0.2.3 Bus2=32109479.0.2.3 LineCode=336_ACSR_2PH_336_ACSR_N_12KV_3_N Length=0.048062 units=km
New Line.ND32188120$PS0062 phases=3 Bus1=32188120.1.2.3 Bus2=32160183.1.2.3 LineCode=336_ACSR_3PH_12KV_3 Length=0.073264 units=km
New Line.ND187842452$4890832E phases=3 Bus1=187842452.1.2.3 Bus2=187842427.1.2.3 LineCode=336_ACSR_3PH_12KV_3 Length=0.003963 units=km
New Line.4356959ET1$ND32189521 phases=3 Bus1=32160597.1.2.3 Bus2=32189521.1.2.3 LineCode=2_CU_3PH_12KV_3 Length=0.081796 units=km
New Line.ND32190719$ND187842452 phases=3 Bus1=187842452.1.2.3 Bus2=32190719.1.2.3 LineCode=336_ACSR_3PH_12KV_3 Length=0.019616 units=km
New Line.ND191697787$ND32190719 phases=3 Bus1=32190719.1.2.3 Bus2=191697787.1.2.3 LineCode=336_ACSR_3PH_12KV_3 Length=0.066615 units=km
New Line.ND31874309$PS0062 phases=3 Bus1=32160184.1.2.3 Bus2=31874309.1.2.3 LineCode=336_ACSR_3PH_12KV_3 Length=0.073264 units=km
New Line.PS6023$1337951E phases=3 Bus1=236468401.1.2.3 Bus2=32109881.1.2.3 LineCode=336_ACSR_3PH_12KV_3 Length=0.000585 units=km
New Line.ND32189521$4356959E phases=2 Bus1=32189521.1.3 Bus2=32109942.1.3 LineCode=2_CU_2PH_12KV_2 Length=0.004714 units=km
New Line.ND32189521$260539E phases=3 Bus1=32189521.1.2.3 Bus2=32110188.1.2.3 LineCode=2_CU_3PH_12KV_3 Length=0.083258 units=km
New Line.721509E$ND32190719 phases=3 Bus1=32190719.1.2.3 Bus2=32160437.1.2.3 LineCode=4_ACSR_3PH_12KV_3 Length=0.021904 units=km
New Line.FD10857$ND191697787 phases=3 Bus1=191697787.1.2.3 Bus2=191697424.1.2.3 LineCode=336_ACSR_3PH_12KV_3 Length=0.001169 units=km
New Line.ND31874309$1707426E phases=3 Bus1=31874309.1.2.3 Bus2=31856793.1.2.3 LineCode=1/0_ACSR_3PH_12KV_3 Length=0.00537 units=km
New Line.ND31899425$ND31874309 phases=3 Bus1=31874309.1.2.3 Bus2=31899425.1.2.3 LineCode=336_ACSR_3PH_12KV_3 Length=0.079879 units=km
New Line.260539E$331402E phases=3 Bus1=32110188.1.2.3 Bus2=32134817.1.2.3 LineCode=1/0_ACSR_3PH_12KV_3 Length=0.099554 units=km
New Line.RCS1187$ND191697787 phases=3 Bus1=191697787.1.2.3 Bus2=32161264.1.2.3 LineCode=336_ACSR_3PH_12KV_3 Length=0.013253 units=km
New Line.721509E$1432693E phases=3 Bus1=32160436.1.2.3 Bus2=101389755.1.2.3 LineCode=4_ACSR_3PH_12KV_3 Length=0.021904 units=km
New Line.ND32188205$4657491E phases=3 Bus1=32188205.1.2.3 Bus2=32151514.1.2.3 LineCode=6_CU_3PH_12KV_3 Length=0.427544 units=km
New Line.PS1206$ND32188205 phases=3 Bus1=32188205.1.2.3 Bus2=32160622.1.2.3 LineCode=336_ACSR_3PH_12KV_3 Length=0.110834 units=km
New Line.PS1193$ND166577198 phases=3 Bus1=166577198.1.2.3 Bus2=32160651.1.2.3 LineCode=1/0_ACSR_3PH_12KV_3 Length=0.032819 units=km
New Line.4657491E$ND32187938 phases=3 Bus1=32151514.1.2.3 Bus2=32187938.1.2.3 LineCode=6_CU_3PH_12KV_3 Length=0.078225 units=km
New Line.345780ET1$ND32187938 phases=3 Bus1=32187938.1.2.3 Bus2=32161073.1.2.3 LineCode=4_ACSR_3PH_12KV_3 Length=0.163665 units=km
New Line.PS1206$ND32161935 phases=3 Bus1=32160623.1.2.3 Bus2=32161935.1.2.3 LineCode=336_ACSR_3PH_12KV_3 Length=0.127449 units=km
New Line.ND32187938$ND32187939 phases=3 Bus1=32187938.1.2.3 Bus2=32187939.1.2.3 LineCode=6_CU_3PH_12KV_3 Length=0.270403 units=km
New Line.331402E$ND292050878 phases=3 Bus1=32134817.1.2.3 Bus2=292050878.1.2.3 LineCode=1/0_ACSR_3PH_12KV_3 Length=0.106299 units=km
New Line.ND31899425$4541968E phases=3 Bus1=31899425.1.2.3 Bus2=31840071.1.2.3 LineCode=336_ACSR_3PH_12KV_3 Length=0.004305 units=km
New Line.ND31873535$ND31899425 phases=3 Bus1=31899425.1.2.3 Bus2=31873535.1.2.3 LineCode=336_ACSR_3PH_12KV_3 Length=0.073402 units=km
New Line.4809182E$ND32161935 phases=2 Bus1=32161935.1.2 Bus2=187764752.1.2 LineCode=4_ACSR_2PH_12KV_2 Length=0.002244 units=km
New Line.ND32187939$4252633E phases=3 Bus1=32187939.1.2.3 Bus2=32151593.1.2.3 LineCode=6_CU_3PH_12KV_3 Length=0.123439 units=km
New Line.ND32161935$ND32161936 phases=3 Bus1=32161935.1.2.3 Bus2=32161936.1.2.3 LineCode=336_ACSR_3PH_12KV_3 Length=0.191912 units=km
New Line.ND32161936$159412E phases=3 Bus1=32161936.1.2.3 Bus2=32135239.1.2.3 LineCode=336_ACSR_3PH_12KV_3 Length=0.099563 units=km
New Line.345780ET1$ND32151541 phases=3 Bus1=32161074.1.2.3 Bus2=32151541.1.2.3 LineCode=4_ACSR_3PH_12KV_3 Length=0.163665 units=km
New Line.4782251E$4809182E phases=2 Bus1=187764752.1.2 Bus2=32152049.1.2 LineCode=4_ACSR_2PH_12KV_2 Length=0.216863 units=km
New Line.1771351E$ND32161936 phases=3 Bus1=32161936.1.2.3 Bus2=32160608.1.2.3 LineCode=1/0_ACSR_3PH_12KV_3 Length=0.118177 units=km
New Line.4252633E$ND32187891 phases=3 Bus1=32151593.1.2.3 Bus2=32187891.1.2.3 LineCode=6_CU_3PH_12KV_3 Length=0.346512 units=km
New Line.ND237500455$RCS1187 phases=3 Bus1=32161263.1.2.3 Bus2=237500455.1.2.3 LineCode=336_ACSR_3PH_12KV_3 Length=0.002112 units=km
New Line.ND31874248$ND31873535 phases=3 Bus1=31873535.1.2.3 Bus2=31874248.1.2.3 LineCode=336_ACSR_3PH_12KV_3 Length=0.077222 units=km
New Line.1432693E$4490841E phases=3 Bus1=101389755.1.2.3 Bus2=32132126.1.2.3 LineCode=4_ACSR_3PH_12KV_3 Length=0.04249 units=km
New Line.ND191697449$ND237500455 phases=3 Bus1=237500455.1.2.3 Bus2=191697449.1.2.3 LineCode=336_ACSR_3PH_12KV_3 Length=0.014793 units=km
New Line.1707478E$ND31874248 phases=3 Bus1=31874248.1.2.3 Bus2=31854904.1.2.3 LineCode=336_ACSR_3PH_12KV_3 Length=0.077455 units=km
New Line.ND31874248$1707429E phases=3 Bus1=31874248.0.2.3 Bus2=31854914.0.2.3 LineCode=336_ACSR_2PH_336_ACSR_N_12KV_3_N Length=0.003844 units=km
New Line.4664091E$1360008E phases=3 Bus1=32110213.1.2.3 Bus2=32152249.1.2.3 LineCode=1/0_ACSR_3PH_12KV_3 Length=0.043766 units=km
New Line.ND32151541$4026104E phases=3 Bus1=32151541.1.2.3 Bus2=32151566.1.2.3 LineCode=4_ACSR_3PH_12KV_3 Length=0.226033 units=km
New Line.ND32187891$337106E phases=3 Bus1=32187891.1.2.3 Bus2=32151622.1.2.3 LineCode=6_CU_3PH_12KV_3 Length=0.127264 units=km
New Line.159412E$1771250E phases=3 Bus1=32135239.1.2.3 Bus2=32157817.1.2.3 LineCode=336_ACSR_3PH_12KV_3 Length=0.073821 units=km
New Line.4013164E$ND32187891 phases=3 Bus1=32187891.1.2.3 Bus2=32161083.1.2.3 LineCode=4_ACSR_3PH_12KV_3 Length=0.027781 units=km
New Line.1771250E$ND140869195 phases=3 Bus1=32157817.1.2.3 Bus2=140869195.1.2.3 LineCode=336_ACSR_3PH_12KV_3 Length=0.219996 units=km
New Line.1771351E$528609E phases=3 Bus1=32160607.1.2.3 Bus2=32135266.1.2.3 LineCode=1/0_ACSR_3PH_12KV_3 Length=0.118177 units=km
New Line.337106E$ND32161538 phases=3 Bus1=32151622.1.2.3 Bus2=32161538.1.2.3 LineCode=6_CU_3PH_12KV_3 Length=0.033228 units=km
New Line.ND140869195$2371958E phases=3 Bus1=140869195.1.2.3 Bus2=140869165.1.2.3 LineCode=336_ACSR_3PH_12KV_3 Length=0.020512 units=km
New Line.ND140869195$4809181E phases=3 Bus1=140869195.1.2.3 Bus2=153893605.1.2.3 LineCode=336_ACSR_3PH_12KV_3 Length=0.207093 units=km
New Line.ND32161538$BF14699 phases=3 Bus1=32161538.1.2.3 Bus2=239527995.1.2.3 LineCode=6_CU_3PH_12KV_3 Length=0.203273 units=km
New Line.4013164E$4013166E phases=3 Bus1=32161084.1.2.3 Bus2=32153292.1.2.3 LineCode=4_ACSR_3PH_12KV_3 Length=0.124986 units=km
New Line.261956E$ND32161538 phases=3 Bus1=32161538.1.2.3 Bus2=32161096.1.2.3 LineCode=6_CU_3PH_12KV_3 Length=0.061324 units=km
New Line.4809181E$ND32161656 phases=3 Bus1=153893605.1.2.3 Bus2=32161656.1.2.3 LineCode=336_ACSR_3PH_12KV_3 Length=0.191126 units=km
New Line.772047E$ND191697449 phases=3 Bus1=191697449.1.2.3 Bus2=220674032.1.2.3 LineCode=336_ACSR_3PH_12KV_3 Length=0.073995 units=km
New Line.1360008E$ND292358575 phases=3 Bus1=32152249.1.2.3 Bus2=292358575.1.2.3 LineCode=1/0_ACSR_3PH_12KV_3 Length=0.030987 units=km
New Line.ND31873950$1707478E phases=3 Bus1=31854904.1.2.3 Bus2=31873950.1.2.3 LineCode=336_ACSR_3PH_12KV_3 Length=0.182561 units=km
New Line.722047E$772047E phases=3 Bus1=220674032.1.2.3 Bus2=237531594.1.2.3 LineCode=336_ACSR_3PH_12KV_3 Length=0.126903 units=km
New Line.ND292358575$PS0767 phases=3 Bus1=292358575.1.2.3 Bus2=292358585.1.2.3 LineCode=1/0_ACSR_3PH_12KV_3 Length=0.004524 units=km
New Line.4412675E$ND31873950 phases=3 Bus1=31873950.1.2.3 Bus2=31871283.1.2.3 LineCode=336_ACSR_3PH_12KV_3 Length=0.172666 units=km
New Line.1707432E$ND31873950 phases=3 Bus1=31873950.1.2.3 Bus2=31872962.1.2.3 LineCode=4_ACSR_3PH_12KV_3 Length=0.002308 units=km
New Line.ND292358575$ND32188068 phases=3 Bus1=292358575.1.2.3 Bus2=32188068.1.2.3 LineCode=1/0_ACSR_3PH_12KV_3 Length=0.072175 units=km
New Line.ND31873983$4412675E phases=3 Bus1=31871283.1.2.3 Bus2=31873983.1.2.3 LineCode=336_ACSR_3PH_12KV_3 Length=0.077505 units=km
New Line.ND32188068$FD10706 phases=3 Bus1=32188068.1.2.3 Bus2=32159011.1.2.3 LineCode=1/0_ACSR_3PH_12KV_3 Length=0.003165 units=km
New Line.ND32188068$1432556E phases=3 Bus1=32188068.1.2.3 Bus2=32159284.1.2.3 LineCode=1/0_ACSR_3PH_12KV_3 Length=0.067468 units=km
New Line.ND32189075$722047E phases=3 Bus1=237531594.1.2.3 Bus2=32189075.1.2.3 LineCode=336_ACSR_3PH_12KV_3 Length=0.033561 units=km
New Line.4517768E$ND31873983 phases=3 Bus1=31873983.1.2.3 Bus2=143550968.1.2.3 LineCode=336_ACSR_3PH_12KV_3 Length=0.080951 units=km
New Line.261956E$ND241485094 phases=3 Bus1=32161097.1.2.3 Bus2=241485094.1.2.3 LineCode=6_CU_3PH_12KV_3 Length=0.040334 units=km
New Line.P5429619-2$P5403139-1 phases=2 Bus1=32133874.2.3 Bus2=32134496.2.3 LineCode=1/0_CLP_2PH_12KV_2 Length=0.097825 units=km
New Line.84529549$P5538729-2 phases=2 Bus1=84529552.2.3 Bus2=84528797.2.3 LineCode=2_CLP_2PH_12KV_2 Length=0.001802 units=km
New Line.84529092$P5533754-2 phases=2 Bus1=84529095.2.3 Bus2=84528950.2.3 LineCode=2_CLP_2PH_12KV_2 Length=0.001463 units=km
New Line.P5533749-2$84529399 phases=2 Bus1=84527967.1.2 Bus2=84529402.1.2 LineCode=2_CLP_2PH_12KV_2 Length=0.001384 units=km
New Line.207267303$P5014399-B phases=2 Bus1=207267306.2.3 Bus2=32132885.2.3 LineCode=2_AL_2PH_12KV_2 Length=0.00136 units=km
New Line.180129610$180129556 phases=3 Bus1=180129612.1.2.3 Bus2=180129558.1.2.3 LineCode=1/0_JCN_3PH_12KV_3 Length=0.086348 units=km
New Line.ND32161725$201448723 phases=1 Bus1=32161725.1 Bus2=201448725.1 LineCode=2_CLP_1PH_12KV_1 Length=0.064009 units=km
New Line.180129583$ND201448786 phases=3 Bus1=180129585.1.2.3 Bus2=201448786.1.2.3 LineCode=1/0_JCN_3PH_12KV_3 Length=0.043944 units=km
New Line.ND73673061$242045623 phases=2 Bus1=73673061.2.3 Bus2=242045625.2.3 LineCode=2_CLP_2PH_12KV_2 Length=0.09104 units=km
New Line.B5152075-1$BS6893-1 phases=2 Bus1=31840139.2.3 Bus2=31840883.2.3 LineCode=2_CLP_2PH_12KV_2 Length=0.021805 units=km
New Line.P5467764-1$ND32161725 phases=2 Bus1=32161725.1.2 Bus2=32152359.1.2 LineCode=2_CIC_2PH_12KV_2 Length=0.135443 units=km
New Line.305943490$P5497389-1 phases=2 Bus1=305943493.1.3 Bus2=32159028.1.3 LineCode=2_CLP_2PH_12KV_2 Length=0.001637 units=km
New Line.305943520$P5497390-1 phases=2 Bus1=305943523.1.3 Bus2=32159076.1.3 LineCode=2_CLP_2PH_12KV_2 Length=0.002814 units=km
New Line.ND73673061$73673273 phases=2 Bus1=73673061.2.3 Bus2=73673275.2.3 LineCode=2_CLP_2PH_12KV_2 Length=0.100889 units=km
New Line.191697667$P5705190-1 phases=2 Bus1=191697670.2.3 Bus2=191697479.2.3 LineCode=1/0_JCN_2PH_12KV_2 Length=0.006959 units=km
New Line.ND201448786$191988440 phases=3 Bus1=201448786.1.2.3 Bus2=191988442.1.2.3 LineCode=1/0_JCN_3PH_12KV_3 Length=0.036103 units=km
New Line.ND201448786$201448794 phases=3 Bus1=201448786.1.2.3 Bus2=201448796.1.2.3 LineCode=1/0_JCN_3PH_12KV_3 Length=0.006687 units=km
New Line.FD10706$BS3559-1 phases=2 Bus1=32159012.1.3 Bus2=32134211.1.3 LineCode=1/0_AL_2PH_12KV_2 Length=0.010845 units=km
New Line.73673221$P5533929-1 phases=2 Bus1=73673224.2.3 Bus2=73672897.2.3 LineCode=2_CLP_2PH_12KV_2 Length=0.006741 units=km
New Line.180129556$P5653440-1 phases=3 Bus1=180129559.1.2.3 Bus2=180129433.1.2.3 LineCode=1/0_JCN_3PH_12KV_3 Length=0.002947 units=km
New Line.4262388E$P5700890-2 phases=2 Bus1=200896139.1.2 Bus2=200896181.1.2 LineCode=1/0_JCN_2PH_12KV_2 Length=0.08217 units=km
New Line.PH623E$292358698 phases=3 Bus1=292358622.1.2.3 Bus2=292358700.1.2.3 LineCode=1/0_JCN_3PH_12KV_3 Length=0.017587 units=km
New Line.B5169559-1$B5169558-2 phases=1 Bus1=32109712.2 Bus2=32109577.2 LineCode=2_CLP_1PH_12KV_1 Length=0.124464 units=km
New Line.B5338981-1$B5338982-2 phases=2 Bus1=32110031.1.3 Bus2=32109968.1.3 LineCode=2_CLP_2PH_12KV_2 Length=0.055244 units=km
New Line.P5449505-2$P5618955-2 phases=2 Bus1=32152512.1.2 Bus2=32152440.1.2 LineCode=2_CIC_2PH_12KV_2 Length=0.148993 units=km
...

! Switches
New Line.993592E:993592E phases=2 Bus1=32160449.1.3 Bus2=32160450.1.3 switch=y r1=0.001 x1=0.001 r0=0.001 x0=0.001 Length=0.001 units=km
New Line.993592E:993592ET1 phases=3 Bus1=32160462.1.2.3 Bus2=32160463.1.2.3 switch=y r1=0.001 x1=0.001 r0=0.001 x0=0.001 Length=0.001 units=km
New Line.993589E:993589E phases=2 Bus1=32160473.2.3 Bus2=32160472.2.3 switch=y r1=0.001 x1=0.001 r0=0.001 x0=0.001 Length=0.001 units=km
New Line.993589E:993589ET1 phases=2 Bus1=32160486.1.2 Bus2=32160485.1.2 switch=y r1=0.001 x1=0.001 r0=0.001 x0=0.001 Length=0.001 units=km
New Line.1771236E:1771236E phases=2 Bus1=32159955.2.3 Bus2=32159956.2.3 switch=y r1=0.001 x1=0.001 r0=0.001 x0=0.001 Length=0.001 units=km
New Line.1807128E:1807128E phases=2 Bus1=32159996.2.3 Bus2=32159997.2.3 switch=y r1=0.001 x1=0.001 r0=0.001 x0=0.001 Length=0.001 units=km
New Line.1557397E:1557397E phases=3 Bus1=32160371.1.2.3 Bus2=32160372.1.2.3 switch=y r1=0.001 x1=0.001 r0=0.001 x0=0.001 Length=0.001 units=km
New Line.1037955E:1037955E phases=3 Bus1=32160048.1.2.3 Bus2=32160047.1.2.3 switch=y r1=0.001 x1=0.001 r0=0.001 x0=0.001 Length=0.001 units=km
New Line.1382459E:1382459E phases=3 Bus1=32160165.1.2.3 Bus2=32160166.1.2.3 switch=y r1=0.001 x1=0.001 r0=0.001 x0=0.001 Length=0.001 units=km
New Line.4356959E:4356959ET1 phases=3 Bus1=32160598.1.2.3 Bus2=32160597.1.2.3 switch=y r1=0.001 x1=0.001 r0=0.001 x0=0.001 Length=0.001 units=km
New Line.721509E:721509E phases=3 Bus1=32160437.1.2.3 Bus2=32160436.1.2.3 switch=y r1=0.001 x1=0.001 r0=0.001 x0=0.001 Length=0.001 units=km
New Line.345780E:345780ET1 phases=3 Bus1=32161073.1.2.3 Bus2=32161074.1.2.3 switch=y r1=0.001 x1=0.001 r0=0.001 x0=0.001 Length=0.001 units=km
New Line.1771351E:1771351E phases=3 Bus1=32160608.1.2.3 Bus2=32160607.1.2.3 switch=y r1=0.001 x1=0.001 r0=0.001 x0=0.001 Length=0.001 units=km
New Line.2371958E:2371958E phases=3 Bus1=140869165.1.2.3 Bus2=140869164.1.2.3 switch=y r1=0.001 x1=0.001 r0=0.001 x0=0.001 Length=0.001 units=km
New Line.261956E:261956E phases=3 Bus1=32161096.1.2.3 Bus2=32161097.1.2.3 switch=y r1=0.001 x1=0.001 r0=0.001 x0=0.001 Length=0.001 units=km
New Line.1707432E:1707432E phases=3 Bus1=31872962.1.2.3 Bus2=31872963.1.2.3 switch=y r1=0.001 x1=0.001 r0=0.001 x0=0.001 Length=0.001 units=km
New Line.913092E:913092E phases=3 Bus1=32160495.1.2.3 Bus2=32160496.1.2.3 switch=y r1=0.001 x1=0.001 r0=0.001 x0=0.001 Length=0.001 units=km
New Line.1707438E:1707438E phases=3 Bus1=31872949.1.2.3 Bus2=31872950.1.2.3 switch=y r1=0.001 x1=0.001 r0=0.001 x0=0.001 Length=0.001 units=km
New Line.1557394E:1557394ET1 phases=3 Bus1=32160009.1.2.3 Bus2=32160010.1.2.3 switch=y r1=0.001 x1=0.001 r0=0.001 x0=0.001 Length=0.001 units=km
New Line.1771246E:1771246ET2 phases=3 Bus1=32161135.1.2.3 Bus2=32161136.1.2.3 switch=y r1=0.001 x1=0.001 r0=0.001 x0=0.001 Length=0.001 units=km
New Line.1771246E:1771246ET1 phases=3 Bus1=32161145.1.2.3 Bus2=32161146.1.2.3 switch=y r1=0.001 x1=0.001 r0=0.001 x0=0.001 Length=0.001 units=km
New Line.2125031E:2125031ET phases=3 Bus1=32160575.1.2.3 Bus2=32160576.1.2.3 switch=y r1=0.001 x1=0.001 r0=0.001 x0=0.001 Length=0.001 units=km
New Line.201448912 phases=3 Bus1=201448914.1.2.3 Bus2=201448915.1.2.3 switch=y r1=0.001 x1=0.001 r0=0.001 x0=0.001 Length=0.001 units=km
New Line.167209756 phases=2 Bus1=167209759.1.2 Bus2=167209758.1.2 switch=y r1=0.001 x1=0.001 r0=0.001 x0=0.001 Length=0.001 units=km
New Line.187842537 phases=3 Bus1=187842539.1.2.3 Bus2=187842540.1.2.3 switch=y r1=0.001 x1=0.001 r0=0.001 x0=0.001 Length=0.001 units=km
New Line.191988311 phases=2 Bus1=191988313.1.2 Bus2=191988314.1.2 switch=y r1=0.001 x1=0.001 r0=0.001 x0=0.001 Length=0.001 units=km
New Line.201398081 phases=2 Bus1=201398084.1.2 Bus2=201398083.1.2 switch=y r1=0.001 x1=0.001 r0=0.001 x0=0.001 Length=0.001 units=km
New Line.216279306 phases=2 Bus1=216279308.1.3 Bus2=216279309.1.3 switch=y r1=0.001 x1=0.001 r0=0.001 x0=0.001 Length=0.001 units=km
New Line.201398169 phases=2 Bus1=201398172.2.3 Bus2=201398171.2.3 switch=y r1=0.001 x1=0.001 r0=0.001 x0=0.001 Length=0.001 units=km
New Line.180129637 phases=3 Bus1=180129639.1.2.3 Bus2=180129640.1.2.3 switch=y r1=0.001 x1=0.001 r0=0.001 x0=0.001 Length=0.001 units=km
New Line.191697657 phases=2 Bus1=191697659.2.3 Bus2=191697660.2.3 switch=y r1=0.001 x1=0.001 r0=0.001 x0=0.001 Length=0.001 units=km
New Line.207267237 phases=3 Bus1=207267239.1.2.3 Bus2=207267240.1.2.3 switch=y r1=0.001 x1=0.001 r0=0.001 x0=0.001 Length=0.001 units=km
New Line.84529374 phases=2 Bus1=84529376.1.2 Bus2=84529377.1.2 switch=y r1=0.001 x1=0.001 r0=0.001 x0=0.001 Length=0.001 units=km
New Line.84529474 phases=2 Bus1=84529476.1.2 Bus2=84529477.1.2 switch=y r1=0.001 x1=0.001 r0=0.001 x0=0.001 Length=0.001 units=km
New Line.201448822 phases=2 Bus1=201448824.2.3 Bus2=201448825.2.3 switch=y r1=0.001 x1=0.001 r0=0.001 x0=0.001 Length=0.001 units=km
New Line.84529067 phases=2 Bus1=84529070.2.3 Bus2=84529069.2.3 switch=y r1=0.001 x1=0.001 r0=0.001 x0=0.001 Length=0.001 units=km
New Line.84529524 phases=2 Bus1=84529527.2.3 Bus2=84529526.2.3 switch=y r1=0.001 x1=0.001 r0=0.001 x0=0.001 Length=0.001 units=km
New Line.191988262 phases=2 Bus1=191988265.2.3 Bus2=191988264.2.3 switch=y r1=0.001 x1=0.001 r0=0.001 x0=0.001 Length=0.001 units=km
New Line.73673184 phases=2 Bus1=73673187.2.3 Bus2=73673186.2.3 switch=y r1=0.001 x1=0.001 r0=0.001 x0=0.001 Length=0.001 units=km
New Line.191697645 phases=2 Bus1=191697648.2.3 Bus2=191697647.2.3 switch=y r1=0.001 x1=0.001 r0=0.001 x0=0.001 Length=0.001 units=km
New Line.180129583 phases=3 Bus1=180129586.1.2.3 Bus2=180129585.1.2.3 switch=y r1=0.001 x1=0.001 r0=0.001 x0=0.001 Length=0.001 units=km
New Line.180129610 phases=3 Bus1=180129613.1.2.3 Bus2=180129612.1.2.3 switch=y r1=0.001 x1=0.001 r0=0.001 x0=0.001 Length=0.001 units=km
New Line.305943490 phases=2 Bus1=305943492.1.3 Bus2=305943493.1.3 switch=y r1=0.001 x1=0.001 r0=0.001 x0=0.001 Length=0.001 units=km
New Line.305943520 phases=2 Bus1=305943522.1.3 Bus2=305943523.1.3 switch=y r1=0.001 x1=0.001 r0=0.001 x0=0.001 Length=0.001 units=km
New Line.84529092 phases=2 Bus1=84529094.2.3 Bus2=84529095.2.3 switch=y r1=0.001 x1=0.001 r0=0.001 x0=0.001 Length=0.001 units=km
New Line.84529549 phases=2 Bus1=84529551.2.3 Bus2=84529552.2.3 switch=y r1=0.001 x1=0.001 r0=0.001 x0=0.001 Length=0.001 units=km
New Line.207267303 phases=2 Bus1=207267305.2.3 Bus2=207267306.2.3 switch=y r1=0.001 x1=0.001 r0=0.001 x0=0.001 Length=0.001 units=km
New Line.84529399 phases=2 Bus1=84529402.1.2 Bus2=84529401.1.2 switch=y r1=0.001 x1=0.001 r0=0.001 x0=0.001 Length=0.001 units=km
New Line.191697667 phases=2 Bus1=191697669.2.3 Bus2=191697670.2.3 switch=y r1=0.001 x1=0.001 r0=0.001 x0=0.001 Length=0.001 units=km
New Line.73673221 phases=2 Bus1=73673223.2.3 Bus2=73673224.2.3 switch=y r1=0.001 x1=0.001 r0=0.001 x0=0.001 Length=0.001 units=km
New Line.180129556 phases=3 Bus1=180129558.1.2.3 Bus2=180129559.1.2.3 switch=y r1=0.001 x1=0.001 r0=0.001 x0=0.001 Length=0.001 units=km
New Line.201448723 phases=1 Bus1=201448725.1 Bus2=201448726.1 switch=y r1=0.001 x1=0.001 r0=0.001 x0=0.001 Length=0.001 units=km
New Line.242045623 phases=2 Bus1=242045625.2.3 Bus2=242045626.2.3 switch=y r1=0.001 x1=0.001 r0=0.001 x0=0.001 Length=0.001 units=km
New Line.73673273 phases=2 Bus1=73673275.2.3 Bus2=73673276.2.3 switch=y r1=0.001 x1=0.001 r0=0.001 x0=0.001 Length=0.001 units=km
New Line.191988440 phases=3 Bus1=191988442.1.2.3 Bus2=191988443.1.2.3 switch=y r1=0.001 x1=0.001 r0=0.001 x0=0.001 Length=0.001 units=km
New Line.201448794 phases=3 Bus1=201448796.1.2.3 Bus2=201448797.1.2.3 switch=y r1=0.001 x1=0.001 r0=0.001 x0=0.001 Length=0.001 units=km
New Line.292358698 phases=3 Bus1=292358700.1.2.3 Bus2=292358701.1.2.3 switch=y r1=0.001 x1=0.001 r0=0.001 x0=0.001 Length=0.001 units=km
New Line.84529424 phases=2 Bus1=84529426.1.2 Bus2=84529427.1.2 switch=y r1=0.001 x1=0.001 r0=0.001 x0=0.001 Length=0.001 units=km
New Line.84529117 phases=2 Bus1=84529120.2.3 Bus2=84529119.2.3 switch=y r1=0.001 x1=0.001 r0=0.001 x0=0.001 Length=0.001 units=km
New Line.207267291 phases=2 Bus1=207267294.2.3 Bus2=207267293.2.3 switch=y r1=0.001 x1=0.001 r0=0.001 x0=0.001 Length=0.001 units=km
New Line.264667136 phases=2 Bus1=264667138.2.3 Bus2=264667139.2.3 switch=y r1=0.001 x1=0.001 r0=0.001 x0=0.001 Length=0.001 units=km
New Line.207267264 phases=2 Bus1=207267266.2.3 Bus2=207267267.2.3 switch=y r1=0.001 x1=0.001 r0=0.001 x0=0.001 Length=0.001 units=km
New Line.238768652 phases=2 Bus1=238768654.2.3 Bus2=238768655.2.3 switch=y r1=0.001 x1=0.001 r0=0.001 x0=0.001 Length=0.001 units=km
New Line.305943550 phases=3 Bus1=305943552.1.2.3 Bus2=305943553.1.2.3 switch=y r1=0.001 x1=0.001 r0=0.001 x0=0.001 Length=0.001 units=km
New Line.84529142 phases=2 Bus1=84529144.2.3 Bus2=84529145.2.3 switch=y r1=0.001 x1=0.001 r0=0.001 x0=0.001 Length=0.001 units=km
New Line.84529167 phases=2 Bus1=84529169.2.3 Bus2=84529170.2.3 switch=y r1=0.001 x1=0.001 r0=0.001 x0=0.001 Length=0.001 units=km
New Line.84529449 phases=2 Bus1=84529452.1.2 Bus2=84529451.1.2 switch=y r1=0.001 x1=0.001 r0=0.001 x0=0.001 Length=0.001 units=km
New Line.1757786E:PS5782 phases=2 Bus1=265652746.2.3 Bus2=265652747.2.3 switch=y r1=0.001 x1=0.001 r0=0.001 x0=0.001 Length=0.001 units=km
New Line.4506098E:PS2069 phases=3 Bus1=32159833.1.2.3 Bus2=32159832.1.2.3 switch=y r1=0.001 x1=0.001 r0=0.001 x0=0.001 Length=0.001 units=km
New Line.555808E:555808E phases=3 Bus1=32159858.1.2.3 Bus2=32159859.1.2.3 switch=y r1=0.001 x1=0.001 r0=0.001 x0=0.001 Length=0.001 units=km
New Line.555817E:PS2071 phases=3 Bus1=32159874.1.2.3 Bus2=32159873.1.2.3 switch=y r1=0.001 x1=0.001 r0=0.001 x0=0.001 Length=0.001 units=km
New Line.555836E:PS1185 phases=3 Bus1=32159930.1.2.3 Bus2=32159929.1.2.3 switch=y r1=0.001 x1=0.001 r0=0.001 x0=0.001 Length=0.001 units=km
New Line.5705191:P5705191-1 phases=2 Bus1=191697547.2.3 Bus2=191697548.2.3 switch=y r1=0.001 x1=0.001 r0=0.001 x0=0.001 Length=0.001 units=km
New Line.1771238E:PS2137 phases=3 Bus1=32159971.1.2.3 Bus2=32159970.1.2.3 switch=y r1=0.001 x1=0.001 r0=0.001 x0=0.001 Length=0.001 units=km
New Line.1557389E:PS1112 phases=3 Bus1=32160130.1.2.3 Bus2=32160129.1.2.3 switch=y r1=0.001 x1=0.001 r0=0.001 x0=0.001 Length=0.001 units=km
New Line.4671595E:PS0511 phases=3 Bus1=31872245.1.2.3 Bus2=31872246.1.2.3 switch=y r1=0.001 x1=0.001 r0=0.001 x0=0.001 Length=0.001 units=km enabled=false
New Line.1557388E:PDREG00315-B phases=3 Bus1=283106130.1.2.3 Bus2=283106131.1.2.3 switch=y r1=0.001 x1=0.001 r0=0.001 x0=0.001 Length=0.001 units=km
New Line.1557388E:PDREG00315-C phases=3 Bus1=283106143.1.2.3 Bus2=283106161.1.2.3 switch=y r1=0.001 x1=0.001 r0=0.001 x0=0.001 Length=0.001 units=km enabled=false
New Line.1557388E:PDREG00315-D phases=3 Bus1=283106136.1.2.3 Bus2=283106137.1.2.3 switch=y r1=0.001 x1=0.001 r0=0.001 x0=0.001 Length=0.001 units=km
New Line.4098803E:PS5781 phases=2 Bus1=302088197.1.3 Bus2=302088198.1.3 switch=y r1=0.001 x1=0.001 r0=0.001 x0=0.001 Length=0.001 units=km
New Line.1771358E:PS6208 phases=3 Bus1=238046750.1.2.3 Bus2=238046751.1.2.3 switch=y r1=0.001 x1=0.001 r0=0.001 x0=0.001 Length=0.001 units=km
New Line.1771356E:PS1212 phases=3 Bus1=239300374.1.2.3 Bus2=239300373.1.2.3 switch=y r1=0.001 x1=0.001 r0=0.001 x0=0.001 Length=0.001 units=km
New Line.5017408:BS3563-1 phases=2 Bus1=32134262.1.2 Bus2=32134261.1.2 switch=y r1=0.001 x1=0.001 r0=0.001 x0=0.001 Length=0.001 units=km
New Line.745366E:745366E phases=3 Bus1=32160562.1.2.3 Bus2=32160563.1.2.3 switch=y r1=0.001 x1=0.001 r0=0.001 x0=0.001 Length=0.001 units=km enabled=false
New Line.1771681E:PS0881 phases=2 Bus1=271405751.2.3 Bus2=271405752.2.3 switch=y r1=0.001 x1=0.001 r0=0.001 x0=0.001 Length=0.001 units=km
New Line.5019332E:PS0302 phases=3 Bus1=240966396.1.2.3 Bus2=240966397.1.2.3 switch=y r1=0.001 x1=0.001 r0=0.001 x0=0.001 Length=0.001 units=km
New Line.5590319:P5590319-1 phases=2 Bus1=32110297.1.2 Bus2=32110298.1.2 switch=y r1=0.001 x1=0.001 r0=0.001 x0=0.001 Length=0.001 units=km
New Line.1650086E:1650086EIB1-2 phases=2 Bus1=32135013.2.3 Bus2=32134990.2.3 switch=y r1=0.001 x1=0.001 r0=0.001 x0=0.001 Length=0.001 units=km
New Line.4695551E:4695551EP3 phases=3 Bus1=140660967.1.2.3 Bus2=140660962.1.2.3 switch=y r1=0.001 x1=0.001 r0=0.001 x0=0.001 Length=0.001 units=km
New Line.1757786E:1757786E phases=2 Bus1=32133383.2.3 Bus2=32133384.2.3 switch=y r1=0.001 x1=0.001 r0=0.001 x0=0.001 Length=0.001 units=km
New Line.4226968E:PH968 phases=3 Bus1=32135070.1.2.3 Bus2=32135071.1.2.3 switch=y r1=0.001 x1=0.001 r0=0.001 x0=0.001 Length=0.001 units=km
New Line.993597E:FD00361 phases=2 Bus1=32132336.1.2 Bus2=32132337.1.2 switch=y r1=0.001 x1=0.001 r0=0.001 x0=0.001 Length=0.001 units=km
New Line.4342625E:FD625 phases=2 Bus1=32152885.2.3 Bus2=32152886.2.3 switch=y r1=0.001 x1=0.001 r0=0.001 x0=0.001 Length=0.001 units=km
New Line.4696701E:4696701E phases=3 Bus1=201448959.1.2.3 Bus2=201448960.1.2.3 switch=y r1=0.001 x1=0.001 r0=0.001 x0=0.001 Length=0.001 units=km
New Line.4098803E:4098803E phases=2 Bus1=32134737.1.3 Bus2=32134738.1.3 switch=y r1=0.001 x1=0.001 r0=0.001 x0=0.001 Length=0.001 units=km
New Line.1771377E:FD10871 phases=2 Bus1=32159527.2.3 Bus2=32159528.2.3 switch=y r1=0.001 x1=0.001 r0=0.001 x0=0.001 Length=0.001 units=km
New Line.1771358E:1771358E phases=3 Bus1=32133497.1.2.3 Bus2=32133498.1.2.3 switch=y r1=0.001 x1=0.001 r0=0.001 x0=0.001 Length=0.001 units=km
New Line.4622285E:4622285E phases=3 Bus1=108343371.1.2.3 Bus2=108343381.1.2.3 switch=y r1=0.001 x1=0.001 r0=0.001 x0=0.001 Length=0.001 units=km
New Line.1771374E:1771374E phases=2 Bus1=32108992.1.2 Bus2=32108993.1.2 switch=y r1=0.001 x1=0.001 r0=0.001 x0=0.001 Length=0.001 units=km
New Line.4664092E:2191768E phases=3 Bus1=32109005.1.2.3 Bus2=32109006.1.2.3 switch=y r1=0.001 x1=0.001 r0=0.001 x0=0.001 Length=0.001 units=km
New Line.1771681E:1771681E phases=2 Bus1=32134825.2.3 Bus2=32134826.2.3 switch=y r1=0.001 x1=0.001 r0=0.001 x0=0.001 Length=0.001 units=km
New Line.1771355E:FD10726 phases=3 Bus1=84527649.1.2.3 Bus2=84527667.1.2.3 switch=y r1=0.001 x1=0.001 r0=0.001 x0=0.001 Length=0.001 units=km
New Line.5019332E:PH332E phases=3 Bus1=245874479.1.2.3 Bus2=245874485.1.2.3 switch=y r1=0.001 x1=0.001 r0=0.001 x0=0.001 Length=0.001 units=km
New Line.4321002E:4321002E phases=3 Bus1=32158591.1.2.3 Bus2=32158592.1.2.3 switch=y r1=0.001 x1=0.001 r0=0.001 x0=0.001 Length=0.001 units=km
New Line.4541967E:RCS1214 phases=3 Bus1=32161298.1.2.3 Bus2=32161297.1.2.3 switch=y r1=0.001 x1=0.001 r0=0.001 x0=0.001 Length=0.001 units=km
New Line.5590319:P5590319-2 phases=2 Bus1=32110298.1.2 Bus2=32110306.1.2 switch=y r1=0.001 x1=0.001 r0=0.001 x0=0.001 Length=0.001 units=km
New Line.5511432:P5511432-2 phases=2 Bus1=93239958.1.3 Bus2=93239950.1.3 switch=y r1=0.001 x1=0.001 r0=0.001 x0=0.001 Length=0.001 units=km
New Line.5318220:P5318220-A phases=3 Bus1=152361051.1.2.3 Bus2=152361052.1.2.3 switch=y r1=0.001 x1=0.001 r0=0.001 x0=0.001 Length=0.001 units=km
New Line.5152076:B5152076-2 phases=2 Bus1=31840964.2.3 Bus2=31840956.2.3 switch=y r1=0.001 x1=0.001 r0=0.001 x0=0.001 Length=0.001 units=km
New Line.5592452:P5592452-1 phases=3 Bus1=32132263.1.2.3 Bus2=32132264.1.2.3 switch=y r1=0.001 x1=0.001 r0=0.001 x0=0.001 Length=0.001 units=km
New Line.5511432:P5511432-1 phases=2 Bus1=93239950.1.3 Bus2=93239949.1.3 switch=y r1=0.001 x1=0.001 r0=0.001 x0=0.001 Length=0.001 units=km
New Line.5318220:P5318220-T phases=3 Bus1=152361052.1.2.3 Bus2=152361060.1.2.3 switch=y r1=0.001 x1=0.001 r0=0.001 x0=0.001 Length=0.001 units=km
New Line.5590321:P5590321-1 phases=2 Bus1=32110225.1.2 Bus2=32110226.1.2 switch=y r1=0.001 x1=0.001 r0=0.001 x0=0.001 Length=0.001 units=km
New Line.5425279:P5425279-2 phases=2 Bus1=31840820.1.2 Bus2=31840812.1.2 switch=y r1=0.001 x1=0.001 r0=0.001 x0=0.001 Length=0.001 units=km
New Line.5590321:P5590321-2 phases=2 Bus1=32110226.1.2 Bus2=32110234.1.2 switch=y r1=0.001 x1=0.001 r0=0.001 x0=0.001 Length=0.001 units=km
New Line.5152113:B5152113-1 phases=2 Bus1=73672444.1.3 Bus2=73672445.1.3 switch=y r1=0.001 x1=0.001 r0=0.001 x0=0.001 Length=0.001 units=km
New Line.5624930:P5624930-2 phases=2 Bus1=137878968.1.3 Bus2=137878960.1.3 switch=y r1=0.001 x1=0.001 r0=0.001 x0=0.001 Length=0.001 units=km
New Line.5582074:P5582074-1 phases=3 Bus1=180129327.1.2.3 Bus2=180129328.1.2.3 switch=y r1=0.001 x1=0.001 r0=0.001 x0=0.001 Length=0.001 units=km
New Line.5425279:P5425279-1 phases=2 Bus1=31840812.1.2 Bus2=31840811.1.2 switch=y r1=0.001 x1=0.001 r0=0.001 x0=0.001 Length=0.001 units=km
New Line.5370060:P5370060-1 phases=2 Bus1=32133400.2.3 Bus2=32133401.2.3 switch=y r1=0.001 x1=0.001 r0=0.001 x0=0.001 Length=0.001 units=km
New Line.5152113:B5152113-2 phases=2 Bus1=73672445.1.3 Bus2=73672453.1.3 switch=y r1=0.001 x1=0.001 r0=0.001 x0=0.001 Length=0.001 units=km
New Line.5461899:P5461899-1 phases=2 Bus1=32152902.2.3 Bus2=32152903.2.3 switch=y r1=0.001 x1=0.001 r0=0.001 x0=0.001 Length=0.001 units=km
New Line.5624936:P5624936-2 phases=2 Bus1=137878701.1.3 Bus2=137878693.1.3 switch=y r1=0.001 x1=0.001 r0=0.001 x0=0.001 Length=0.001 units=km
New Line.5372847:P5372847-A phases=2 Bus1=32108067.1.3 Bus2=32108068.1.3 switch=y r1=0.001 x1=0.001 r0=0.001 x0=0.001 Length=0.001 units=km
New Line.5590261:P5590261-1 phases=2 Bus1=201448978.1.2 Bus2=201448979.1.2 switch=y r1=0.001 x1=0.001 r0=0.001 x0=0.001 Length=0.001 units=km
New Line.5624933:P5624933-2 phases=2 Bus1=137878769.1.3 Bus2=137878761.1.3 switch=y r1=0.001 x1=0.001 r0=0.001 x0=0.001 Length=0.001 units=km
New Line.5614147:P5614147-1 phases=3 Bus1=198951130.1.2.3 Bus2=198951131.1.2.3 switch=y r1=0.001 x1=0.001 r0=0.001 x0=0.001 Length=0.001 units=km
New Line.5425280:P5425280-2 phases=2 Bus1=31840748.1.2 Bus2=31840740.1.2 switch=y r1=0.001 x1=0.001 r0=0.001 x0=0.001 Length=0.001 units=km
New Line.5169611:B5169611-1 phases=2 Bus1=32110369.1.3 Bus2=32110370.1.3 switch=y r1=0.001 x1=0.001 r0=0.001 x0=0.001 Length=0.001 units=km
New Line.5425280:P5425280-1 phases=2 Bus1=31840740.1.2 Bus2=31840739.1.2 switch=y r1=0.001 x1=0.001 r0=0.001 x0=0.001 Length=0.001 units=km
New Line.5017409:B5017409-2 phases=2 Bus1=32132434.1.2 Bus2=32132426.1.2 switch=y r1=0.001 x1=0.001 r0=0.001 x0=0.001 Length=0.001 units=km
New Line.5017409:B5017409-1 phases=2 Bus1=32132426.1.2 Bus2=32132425.1.2 switch=y r1=0.001 x1=0.001 r0=0.001 x0=0.001 Length=0.001 units=km
New Line.5514866:P5514866-1 phases=2 Bus1=32159544.2.3 Bus2=32159545.2.3 switch=y r1=0.001 x1=0.001 r0=0.001 x0=0.001 Length=0.001 units=km
New Line.5514866:P5514866-2 phases=2 Bus1=32159545.2.3 Bus2=32159553.2.3 switch=y r1=0.001 x1=0.001 r0=0.001 x0=0.001 Length=0.001 units=km
New Line.5705191:P5705191-2 phases=2 Bus1=191697548.2.3 Bus2=-777777191697548.2.3 switch=y r1=0.001 x1=0.001 r0=0.001 x0=0.001 Length=0.001 units=km
New Line.5152076:B5152076-1 phases=2 Bus1=31840956.2.3 Bus2=-77777731840956.2.3 switch=y r1=0.001 x1=0.001 r0=0.001 x0=0.001 Length=0.001 units=km
New Line.5461899:P5461899-2 phases=2 Bus1=32152903.2.3 Bus2=-77777732152903.2.3 switch=y r1=0.001 x1=0.001 r0=0.001 x0=0.001 Length=0.001 units=km
New Line.5370060:P5370060-2 phases=2 Bus1=32133401.2.3 Bus2=-77777732133401.2.3 switch=y r1=0.001 x1=0.001 r0=0.001 x0=0.001 Length=0.001 units=km
New Line.5624930:P5624930-1 phases=2 Bus1=137878960.1.3 Bus2=-777777137878960.1.3 switch=y r1=0.001 x1=0.001 r0=0.001 x0=0.001 Length=0.001 units=km
New Line.5624936:P5624936-1 phases=2 Bus1=137878693.1.3 Bus2=-777777137878693.1.3 switch=y r1=0.001 x1=0.001 r0=0.001 x0=0.001 Length=0.001 units=km
New Line.5169611:B5169611-2 phases=2 Bus1=32110370.1.3 Bus2=-77777732110370.1.3 switch=y r1=0.001 x1=0.001 r0=0.001 x0=0.001 Length=0.001 units=km
New Line.5624933:P5624933-1 phases=2 Bus1=137878761.1.3 Bus2=-777777137878761.1.3 switch=y r1=0.001 x1=0.001 r0=0.001 x0=0.001 Length=0.001 units=km
New Line.84529349 phases=2 Bus1=84529351.1.2 Bus2=84529352.1.2 switch=y r1=0.001 x1=0.001 r0=0.001 x0=0.001 Length=0.001 units=km
New Line.191697677 phases=2 Bus1=191697680.2.3 Bus2=191697679.2.3 switch=y r1=0.001 x1=0.001 r0=0.001 x0=0.001 Length=0.001 units=km
New Line.206468408 phases=1 Bus1=206468410.3 Bus2=206468411.3 switch=y r1=0.001 x1=0.001 r0=0.001 x0=0.001 Length=0.001 units=km
New Line.84529314 phases=2 Bus1=84529317.1.2 Bus2=84529316.1.2 switch=y r1=0.001 x1=0.001 r0=0.001 x0=0.001 Length=0.001 units=km
New Line.216279330 phases=3 Bus1=216279332.1.2.3 Bus2=216279333.1.2.3 switch=y r1=0.001 x1=0.001 r0=0.001 x0=0.001 Length=0.001 units=km
New Line.264667165 phases=2 Bus1=264667168.2.3 Bus2=264667167.2.3 switch=y r1=0.001 x1=0.001 r0=0.001 x0=0.001 Length=0.001 units=km
New Line.84529264 phases=2 Bus1=84529266.1.2 Bus2=84529267.1.2 switch=y r1=0.001 x1=0.001 r0=0.001 x0=0.001 Length=0.001 units=km
New Line.84529289 phases=2 Bus1=84529291.1.2 Bus2=84529292.1.2 switch=y r1=0.001 x1=0.001 r0=0.001 x0=0.001 Length=0.001 units=km
New Line.84529229 phases=2 Bus1=84529232.1.2 Bus2=84529231.1.2 switch=y r1=0.001 x1=0.001 r0=0.001 x0=0.001 Length=0.001 units=km
New Line.84529192 phases=2 Bus1=84529194.1.2 Bus2=84529195.1.2 switch=y r1=0.001 x1=0.001 r0=0.001 x0=0.001 Length=0.001 units=km
New Line.1650086E:1650086EIB1-1 phases=2 Bus1=32134995.2.3 Bus2=32135004.2.3 switch=y r1=0.001 x1=0.001 r0=0.001 x0=0.001 Length=0.001 units=km
New Line.1337951E:PS6023 phases=3 Bus1=236468400.1.2.3 Bus2=236468401.1.2.3 switch=y r1=0.001 x1=0.001 r0=0.001 x0=0.001 Length=0.001 units=km
New Line.1707426E:PS0062 phases=3 Bus1=32160183.1.2.3 Bus2=32160184.1.2.3 switch=y r1=0.001 x1=0.001 r0=0.001 x0=0.001 Length=0.001 units=km
New Line.1650129E:PS1206 phases=3 Bus1=32160622.1.2.3 Bus2=32160623.1.2.3 switch=y r1=0.001 x1=0.001 r0=0.001 x0=0.001 Length=0.001 units=km
New Line.1771367E:RCS1187 phases=3 Bus1=32161264.1.2.3 Bus2=32161263.1.2.3 switch=y r1=0.001 x1=0.001 r0=0.001 x0=0.001 Length=0.001 units=km
New Line.4013164E:4013164E phases=3 Bus1=32161083.1.2.3 Bus2=32161084.1.2.3 switch=y r1=0.001 x1=0.001 r0=0.001 x0=0.001 Length=0.001 units=km
New Line.4122696E:4122696EP1 phases=3 Bus1=106338059.1.2.3 Bus2=106338060.1.2.3 switch=y r1=0.001 x1=0.001 r0=0.001 x0=0.001 Length=0.001 units=km
New Line.1650086E:1650086E phases=2 Bus1=32109479.2.3 Bus2=32109480.2.3 switch=y r1=0.001 x1=0.001 r0=0.001 x0=0.001 Length=0.001 units=km
New Line.4890832E:4890832E phases=3 Bus1=187842427.1.2.3 Bus2=187842428.1.2.3 switch=y r1=0.001 x1=0.001 r0=0.001 x0=0.001 Length=0.001 units=km
New Line.1337951E:1337951E phases=3 Bus1=32109881.1.2.3 Bus2=32109882.1.2.3 switch=y r1=0.001 x1=0.001 r0=0.001 x0=0.001 Length=0.001 units=km
New Line.4356959E:4356959E phases=2 Bus1=32109942.1.3 Bus2=32109943.1.3 switch=y r1=0.001 x1=0.001 r0=0.001 x0=0.001 Length=0.001 units=km
New Line.1650127E:FD10727 phases=3 Bus1=84527682.1.2.3 Bus2=84527702.1.2.3 switch=y r1=0.001 x1=0.001 r0=0.001 x0=0.001 Length=0.001 units=km
New Line.4653173E:FD10857 phases=3 Bus1=191697424.1.2.3 Bus2=191697425.1.2.3 switch=y r1=0.001 x1=0.001 r0=0.001 x0=0.001 Length=0.001 units=km
New Line.1707426E:1707426E phases=3 Bus1=31856793.1.2.3 Bus2=31856794.1.2.3 switch=y r1=0.001 x1=0.001 r0=0.001 x0=0.001 Length=0.001 units=km
New Line.4541968E:4541968E phases=3 Bus1=31840071.1.2.3 Bus2=31840072.1.2.3 switch=y r1=0.001 x1=0.001 r0=0.001 x0=0.001 Length=0.001 units=km
New Line.1707429E:1707429E phases=2 Bus1=31854914.2.3 Bus2=31854915.2.3 switch=y r1=0.001 x1=0.001 r0=0.001 x0=0.001 Length=0.001 units=km
New Line.4978623E:PS0767 phases=3 Bus1=292358585.1.2.3 Bus2=292358586.1.2.3 switch=y r1=0.001 x1=0.001 r0=0.001 x0=0.001 Length=0.001 units=km
New Line.5152074:BS6893-1 phases=2 Bus1=31840138.2.3 Bus2=31840139.2.3 switch=y r1=0.001 x1=0.001 r0=0.001 x0=0.001 Length=0.001 units=km
New Line.5013016:BS3559-1 phases=2 Bus1=32134211.1.3 Bus2=32134212.1.3 switch=y r1=0.001 x1=0.001 r0=0.001 x0=0.001 Length=0.001 units=km
New Line.4541817E:RCS3676 phases=3 Bus1=13917416.1.2.3 Bus2=32161195.1.2.3 switch=y r1=0.001 x1=0.001 r0=0.001 x0=0.001 Length=0.001 units=km enabled=false
New Line.1771854E:32151706 phases=3 Bus1=32151708.1.2.3 Bus2=32151709.1.2.3 switch=y r1=0.001 x1=0.001 r0=0.001 x0=0.001 Length=0.001 units=km
New Line.4600454E:32152106 phases=3 Bus1=32152108.1.2.3 Bus2=32152109.1.2.3 switch=y r1=0.001 x1=0.001 r0=0.001 x0=0.001 Length=0.001 units=km
New Line.318698E:32153399 phases=3 Bus1=32153401.1.2.3 Bus2=32153402.1.2.3 switch=y r1=0.001 x1=0.001 r0=0.001 x0=0.001 Length=0.001 units=km
New Line.939759E:32133353 phases=3 Bus1=32133355.1.2.3 Bus2=32133356.1.2.3 switch=y r1=0.001 x1=0.001 r0=0.001 x0=0.001 Length=0.001 units=km
New Line.1414147E:32151731 phases=3 Bus1=32151733.1.2.3 Bus2=32151734.1.2.3 switch=y r1=0.001 x1=0.001 r0=0.001 x0=0.001 Length=0.001 units=km
New Line.1872533E:32151756 phases=3 Bus1=32151758.1.2.3 Bus2=32151759.1.2.3 switch=y r1=0.001 x1=0.001 r0=0.001 x0=0.001 Length=0.001 units=km
New Line.4012985E:32151781 phases=2 Bus1=32151783.1.2 Bus2=32151784.1.2 switch=y r1=0.001 x1=0.001 r0=0.001 x0=0.001 Length=0.001 units=km
New Line.4012986E:32151806 phases=2 Bus1=32151808.1.2 Bus2=32151809.1.2 switch=y r1=0.001 x1=0.001 r0=0.001 x0=0.001 Length=0.001 units=km
New Line.4012987E:32151831 phases=2 Bus1=32151833.1.2 Bus2=32151834.1.2 switch=y r1=0.001 x1=0.001 r0=0.001 x0=0.001 Length=0.001 units=km
New Line.721517E:32132003 phases=2 Bus1=32132005.1.2 Bus2=32132006.1.2 switch=y r1=0.001 x1=0.001 r0=0.001 x0=0.001 Length=0.001 units=km
New Line.993593E:32132306 phases=3 Bus1=32132308.1.2.3 Bus2=32132309.1.2.3 switch=y r1=0.001 x1=0.001 r0=0.001 x0=0.001 Length=0.001 units=km
New Line.913088E:32133203 phases=2 Bus1=32133205.1.2 Bus2=32133206.1.2 switch=y r1=0.001 x1=0.001 r0=0.001 x0=0.001 Length=0.001 units=km
New Line.1245508E:32134331 phases=3 Bus1=32134333.1.2.3 Bus2=32134334.1.2.3 switch=y r1=0.001 x1=0.001 r0=0.001 x0=0.001 Length=0.001 units=km
New Line.371798E:32134887 phases=3 Bus1=32134889.1.2.3 Bus2=32134890.1.2.3 switch=y r1=0.001 x1=0.001 r0=0.001 x0=0.001 Length=0.001 units=km
New Line.4369699E:BF14699 phases=3 Bus1=239527995.1.2.3 Bus2=239527994.1.2.3 switch=y r1=0.001 x1=0.001 r0=0.001 x0=0.001 Length=0.001 units=km
New Line.2253344E:BF14373 phases=3 Bus1=220080740.1.2.3 Bus2=220080741.1.2.3 switch=y r1=0.001 x1=0.001 r0=0.001 x0=0.001 Length=0.001 units=km
New Line.1245506E:BF11009 phases=3 Bus1=70696817.1.2.3 Bus2=70696816.1.2.3 switch=y r1=0.001 x1=0.001 r0=0.001 x0=0.001 Length=0.001 units=km
New Line.1360009E:FD10706 phases=3 Bus1=32159011.1.2.3 Bus2=32159012.1.2.3 switch=y r1=0.001 x1=0.001 r0=0.001 x0=0.001 Length=0.001 units=km
New Line.4262388E:4262388E phases=2 Bus1=200896138.1.2 Bus2=200896139.1.2 switch=y r1=0.001 x1=0.001 r0=0.001 x0=0.001 Length=0.001 units=km
New Line.4978623E:PH623E phases=3 Bus1=292358621.1.2.3 Bus2=292358622.1.2.3 switch=y r1=0.001 x1=0.001 r0=0.001 x0=0.001 Length=0.001 units=km
New Line.4506054E:4506054E phases=2 Bus1=32157999.1.3 Bus2=32158000.1.3 switch=y r1=0.001 x1=0.001 r0=0.001 x0=0.001 Length=0.001 units=km
New Line.4592477E:PH477E phases=3 Bus1=238768560.1.2.3 Bus2=238768581.1.2.3 switch=y r1=0.001 x1=0.001 r0=0.001 x0=0.001 Length=0.001 units=km
New Line.2085850E:2085850E phases=3 Bus1=32158876.1.2.3 Bus2=32158877.1.2.3 switch=y r1=0.001 x1=0.001 r0=0.001 x0=0.001 Length=0.001 units=km
New Line.4700910E:4700910E phases=3 Bus1=32132246.1.2.3 Bus2=32132247.1.2.3 switch=y r1=0.001 x1=0.001 r0=0.001 x0=0.001 Length=0.001 units=km
New Line.4696877E:FD10762 phases=2 Bus1=100259270.1.2 Bus2=100259271.1.2 switch=y r1=0.001 x1=0.001 r0=0.001 x0=0.001 Length=0.001 units=km
New Line.4501008E:4501008E phases=2 Bus1=70696903.1.3 Bus2=70696904.1.3 switch=y r1=0.001 x1=0.001 r0=0.001 x0=0.001 Length=0.001 units=km
New Line.4657487E:FD7487 phases=3 Bus1=137878635.1.2.3 Bus2=137878636.1.2.3 switch=y r1=0.001 x1=0.001 r0=0.001 x0=0.001 Length=0.001 units=km
New Line.5017410:B5017410-1 phases=2 Bus1=32132353.1.2 Bus2=32132354.1.2 switch=y r1=0.001 x1=0.001 r0=0.001 x0=0.001 Length=0.001 units=km
...

! Loads
New Load.5403137_0 Bus1=-99999932133803.3.0 phases=1 kV=0.069282 kW=0 kvar=0 model=1
New Load.5403137_1 Bus1=-99999932133803.1.0 phases=1 kV=0.069282 kW=0 kvar=0 model=1
New Load.4541383E_0 Bus1=-999999101389831.1.0 phases=1 kV=0.069282 kW=0 kvar=0 model=1
New Load.4541383E_1 Bus1=-999999101389831.2.0 phases=1 kV=0.069282 kW=0 kvar=0 model=1
New Load.5533750_0 Bus1=-99999984528039.2.0 phases=1 kV=0.069282 kW=0 kvar=0 model=1
New Load.5533750_1 Bus1=-99999984528039.3.0 phases=1 kV=0.069282 kW=0 kvar=0 model=1
New Load.4291745E_0 Bus1=-99999932158470.1.0 phases=1 kV=0.069282 kW=0 kvar=0 model=1
New Load.4291745E_1 Bus1=-99999932158470.2.0 phases=1 kV=0.069282 kW=0 kvar=0 model=1
New Load.2109774E_0 Bus1=-99999932152159.1.0 phases=1 kV=0.159926 kW=0 kvar=0 model=1
...